Version 4
SHEET 1 880 680
WIRE 496 -176 -64 -176
WIRE 496 -160 496 -176
WIRE 496 -32 496 -80
WIRE 576 -32 496 -32
WIRE 720 -32 640 -32
WIRE 496 16 496 -32
WIRE 256 96 128 96
WIRE 384 96 320 96
WIRE 448 96 384 96
WIRE -64 112 -64 -176
WIRE 384 144 384 96
WIRE 720 144 720 -32
WIRE 128 192 128 96
WIRE 720 304 720 224
WIRE -64 320 -64 192
WIRE 128 320 128 272
WIRE 384 320 384 224
WIRE 496 320 496 112
FLAG -64 320 0
FLAG 128 320 0
FLAG 384 320 0
FLAG 496 320 0
FLAG 720 304 0
SYMBOL voltage -64 96 R0
WINDOW 123 0 0 Left 0
WINDOW 39 0 0 Left 0
SYMATTR InstName V1
SYMATTR Value 15V
SYMBOL voltage 128 176 R0
WINDOW 123 0 0 Left 0
WINDOW 39 0 0 Left 0
SYMATTR InstName V2
SYMATTR Value SINE(0 20mV 1k)
SYMBOL cap 320 80 R90
WINDOW 0 0 32 VBottom 2
WINDOW 3 32 32 VTop 2
SYMATTR InstName C1
SYMATTR Value 10µF
SYMBOL cap 640 -48 R90
WINDOW 0 0 32 VBottom 2
WINDOW 3 32 32 VTop 2
SYMATTR InstName C2
SYMATTR Value 10µF
SYMBOL res 368 128 R0
SYMATTR InstName R1
SYMATTR Value 1000k
SYMBOL res 480 -176 R0
SYMATTR InstName R2
SYMATTR Value 100k
SYMBOL nmos 448 16 R0
SYMATTR InstName M1
SYMATTR Value AO6408
SYMBOL res 704 128 R0
SYMATTR InstName R3
SYMATTR Value 100k
TEXT -98 344 Left 2 !.tran 10ms
