Version 4
SHEET 1 880 680
WIRE 304 -32 0 -32
WIRE 432 -32 304 -32
WIRE 576 -32 528 -32
WIRE 304 -16 304 -32
WIRE 576 48 576 -32
WIRE 0 64 0 -32
WIRE 304 80 304 64
WIRE 448 80 448 16
WIRE 448 80 304 80
WIRE 448 96 448 80
WIRE 400 176 128 176
WIRE 128 224 128 176
WIRE 0 352 0 144
WIRE 128 352 128 304
WIRE 448 352 448 192
WIRE 576 352 576 128
FLAG 0 352 0
FLAG 128 352 0
FLAG 448 352 0
FLAG 576 352 0
SYMBOL voltage 0 48 R0
WINDOW 123 0 0 Left 0
WINDOW 39 0 0 Left 0
SYMATTR InstName V1
SYMATTR Value 5V
SYMBOL voltage 128 208 R0
WINDOW 123 0 0 Left 0
WINDOW 39 0 0 Left 0
SYMATTR InstName V2
SYMATTR Value PULSE(0 5V 0 0 0 500us 1ms)
SYMBOL res 288 -32 R0
SYMATTR InstName R1
SYMATTR Value 10k
SYMBOL res 560 32 R0
SYMATTR InstName R2
SYMATTR Value 10R
SYMBOL nmos 400 96 R0
SYMATTR InstName M1
SYMATTR Value Si7336ADP
SYMBOL pmos 528 16 M270
SYMATTR InstName M2
SYMATTR Value AO6407
TEXT -34 376 Left 2 !.tran 10ms
