Version 4
SHEET 1 1416 680
WIRE 448 -208 -112 -208
WIRE 624 -208 448 -208
WIRE 448 -176 448 -208
WIRE 624 -176 624 -208
WIRE 624 -48 624 -96
WIRE 752 -48 624 -48
WIRE 896 -48 816 -48
WIRE 624 0 624 -48
WIRE -112 32 -112 -208
WIRE 896 64 896 -48
WIRE 192 80 96 80
WIRE 336 80 272 80
WIRE 448 80 448 -96
WIRE 448 80 400 80
WIRE 576 80 448 80
WIRE 624 128 624 96
WIRE 704 128 624 128
WIRE 96 144 96 80
WIRE 448 176 448 80
WIRE 624 176 624 128
WIRE 704 176 704 128
WIRE -112 288 -112 112
WIRE 96 288 96 224
WIRE 448 288 448 256
WIRE 624 288 624 256
WIRE 704 288 704 240
WIRE 896 288 896 144
FLAG 96 288 0
FLAG -112 288 0
FLAG 448 288 0
FLAG 624 288 0
FLAG 704 288 0
FLAG 896 288 0
SYMBOL voltage -112 16 R0
WINDOW 123 0 0 Left 0
WINDOW 39 0 0 Left 0
SYMATTR InstName V1
SYMATTR Value 20V
SYMBOL voltage 96 128 R0
WINDOW 123 0 0 Left 0
WINDOW 39 0 0 Left 0
SYMATTR InstName V2
SYMATTR Value SINE(0 10mV 1k)
SYMBOL res 432 -192 R0
SYMATTR InstName R1
SYMATTR Value 1000k
SYMBOL res 432 160 R0
SYMATTR InstName R2
SYMATTR Value 1000k
SYMBOL res 288 64 R90
WINDOW 0 0 56 VBottom 2
WINDOW 3 32 56 VTop 2
SYMATTR InstName R3
SYMATTR Value 47K
SYMBOL res 640 -80 R180
WINDOW 0 36 76 Left 2
WINDOW 3 36 40 Left 2
SYMATTR InstName R4
SYMATTR Value 3k6
SYMBOL res 640 272 R180
WINDOW 0 36 76 Left 2
WINDOW 3 36 40 Left 2
SYMATTR InstName R5
SYMATTR Value 10k
SYMBOL res 912 160 R180
WINDOW 0 36 76 Left 2
WINDOW 3 36 40 Left 2
SYMATTR InstName R6
SYMATTR Value 10k
SYMBOL cap 400 64 R90
WINDOW 0 0 32 VBottom 2
WINDOW 3 32 32 VTop 2
SYMATTR InstName C1
SYMATTR Value 2nF
SYMBOL cap 688 176 R0
SYMATTR InstName C2
SYMATTR Value 1µF
SYMBOL cap 816 -64 R90
WINDOW 0 0 32 VBottom 2
WINDOW 3 32 32 VTop 2
SYMATTR InstName C3
SYMATTR Value 1µF
SYMBOL nmos 576 0 R0
SYMATTR InstName M1
SYMATTR Value AO6408
TEXT -146 312 Left 2 !.tran 10ms
