* D:\Documents\EDA\jfet-polarization-source-current\lt-spice\jfet-polarization-source-current.asc
V1 N001 0 10V
V2 0 N006 5V
J1 N002 N003 N004 NJF
Q1 N004 0 N005 0 NPN
R1 N003 0 1000k
R2 N001 N002 1k
R3 N005 N006 2k
.model NPN NPN
.model PNP PNP
.lib D:\Documents\LTspiceXVII\lib\cmp\standard.bjt
.model NJF NJF
.model PJF PJF
.lib D:\Documents\LTspiceXVII\lib\cmp\standard.jft
.tran 10ms
.backanno
.end
