Version 4
SHEET 1 880 680
SYMBOL voltage -48 64 R0
SYMATTR InstName V1
SYMBOL voltage -48 192 R0
SYMATTR InstName V2
SYMBOL njf 256 96 R0
SYMATTR InstName J1
SYMBOL npn 240 224 R0
SYMATTR InstName Q1
SYMBOL res 80 240 R0
SYMATTR InstName R1
SYMBOL res 288 -32 R0
SYMATTR InstName R2
SYMBOL res 288 352 R0
SYMATTR InstName R3
