Version 4
SHEET 1 1168 680
WIRE 192 -16 144 -16
WIRE 400 -16 272 -16
WIRE 944 -16 496 -16
WIRE 144 144 144 -16
WIRE 192 144 144 144
WIRE 560 144 272 144
WIRE 944 144 944 -16
WIRE 944 144 656 144
WIRE 144 304 144 144
WIRE 192 304 144 304
WIRE 720 304 272 304
WIRE 944 304 944 144
WIRE 944 304 816 304
WIRE 1072 304 944 304
WIRE 464 416 464 32
WIRE 624 416 624 192
WIRE 784 416 784 352
WIRE 944 416 944 304
WIRE 144 560 144 304
WIRE 464 560 464 496
WIRE 624 560 624 496
WIRE 784 560 784 496
WIRE 944 560 944 496
FLAG 1072 304 out
IOPIN 1072 304 Out
FLAG 144 560 0
FLAG 464 560 0
FLAG 624 560 0
FLAG 784 560 0
FLAG 944 560 0
SYMBOL voltage 288 -16 R90
WINDOW 0 -32 56 VBottom 2
WINDOW 3 32 56 VTop 2
WINDOW 123 0 0 Left 0
WINDOW 39 0 0 Left 0
SYMATTR InstName V1
SYMATTR Value SINE(0 1 10)
SYMBOL voltage 288 144 R90
WINDOW 0 -32 56 VBottom 2
WINDOW 3 32 56 VTop 2
WINDOW 123 0 0 Left 0
WINDOW 39 0 0 Left 0
SYMATTR InstName V2
SYMATTR Value SINE(0 1 50 0 0 0)
SYMBOL voltage 288 304 R90
WINDOW 0 -32 56 VBottom 2
WINDOW 3 32 56 VTop 2
WINDOW 123 0 0 Left 0
WINDOW 39 0 0 Left 0
SYMATTR InstName V3
SYMATTR Value SINE(0 1 100)
SYMBOL voltage 464 400 R0
WINDOW 3 24 44 Left 2
WINDOW 123 0 0 Left 0
WINDOW 39 0 0 Left 0
SYMATTR InstName V4
SYMATTR Value 0
SYMBOL voltage 624 400 R0
WINDOW 3 24 44 Left 2
WINDOW 123 0 0 Left 0
WINDOW 39 0 0 Left 0
SYMATTR InstName V5
SYMATTR Value 0
SYMBOL voltage 784 400 R0
WINDOW 3 24 44 Left 2
WINDOW 123 0 0 Left 0
WINDOW 39 0 0 Left 0
SYMATTR InstName V6
SYMATTR Value 0
SYMBOL res 928 400 R0
SYMATTR InstName R1
SYMATTR Value 10k
SYMBOL njf 400 32 R270
SYMATTR InstName J1
SYMBOL njf 560 192 R270
SYMATTR InstName J2
SYMBOL njf 720 352 R270
SYMATTR InstName J3
TEXT -42 264 Left 2 !.tran 1s
